Version 4
SHEET 1 4640 8040
WIRE -352 -288 -352 -320
WIRE -400 -176 -400 -256
WIRE -352 -176 -352 -240
WIRE -352 -128 -352 -176
WIRE -400 -48 -400 -176
WIRE -352 -48 -352 -80
WIRE 304 80 304 48
WIRE 1040 80 1040 48
WIRE 1824 80 1824 48
WIRE 2400 80 2400 48
WIRE -240 208 -240 160
WIRE -240 208 -368 208
WIRE -144 208 -144 160
WIRE 64 208 -144 208
WIRE 144 208 64 208
WIRE 256 208 256 112
WIRE 256 208 144 208
WIRE 304 208 304 128
WIRE 672 208 304 208
WIRE 816 208 672 208
WIRE 992 208 992 112
WIRE 992 208 816 208
WIRE 1040 208 1040 128
WIRE 1440 208 1440 160
WIRE 1440 208 1040 208
WIRE 1536 208 1536 160
WIRE 1584 208 1536 208
WIRE 1648 208 1584 208
WIRE 1776 208 1776 112
WIRE 1776 208 1648 208
WIRE 1824 208 1824 128
WIRE 2240 208 1824 208
WIRE 2352 208 2352 112
WIRE 2352 208 2240 208
WIRE 2400 208 2400 128
WIRE 2480 208 2400 208
WIRE 304 240 304 208
WIRE 1040 240 1040 208
WIRE 1824 240 1824 208
WIRE 2400 240 2400 208
WIRE -240 256 -240 208
WIRE -144 256 -144 208
WIRE 1440 256 1440 208
WIRE 1536 256 1536 208
WIRE 256 320 256 208
WIRE 304 320 304 288
WIRE 992 320 992 208
WIRE 1040 320 1040 288
WIRE 1776 320 1776 208
WIRE 1824 320 1824 288
WIRE 2352 320 2352 208
WIRE 2400 320 2400 288
WIRE 2112 480 2112 448
WIRE 608 528 608 496
WIRE 144 576 144 208
WIRE 240 576 240 528
WIRE 240 576 144 576
WIRE 336 576 336 528
WIRE 496 576 336 576
WIRE 608 576 496 576
WIRE 1648 576 1648 208
WIRE 1680 576 1680 528
WIRE 1680 576 1648 576
WIRE 1776 576 1776 528
WIRE 2064 576 2064 512
WIRE 2064 576 1776 576
WIRE 656 592 656 560
WIRE 672 592 672 208
WIRE 672 592 656 592
WIRE 2112 592 2112 528
WIRE 2240 592 2240 208
WIRE 2240 592 2112 592
WIRE 240 624 240 576
WIRE 336 624 336 576
WIRE 1680 624 1680 576
WIRE 1776 624 1776 576
WIRE 608 640 608 576
WIRE 2112 640 2112 592
WIRE 608 720 608 688
WIRE 656 720 656 592
WIRE 2064 720 2064 576
WIRE 2112 720 2112 688
FLAG -192 256 0
FLAG -192 160 Vdd
FLAG -160 304 clk_bar
FLAG -224 112 clk
FLAG -368 208 D
FLAG 304 336 0
FLAG 304 32 Vdd
FLAG 608 736 0
FLAG 288 624 0
FLAG 288 528 Vdd
FLAG 256 480 clk_bar
FLAG 320 672 clk
FLAG 608 480 Vdd
FLAG 496 576 Q
FLAG 1824 336 0
FLAG 1824 32 Vdd
FLAG 1472 -320 0
FLAG 1472 -400 Vdd
FLAG 1712 -320 0
FLAG 1712 -400 D
FLAG -352 -32 0
FLAG -352 -336 Vdd
FLAG 496 -304 0
FLAG 496 -384 clk
FLAG -400 -176 clk
FLAG -352 -176 clk_bar
FLAG 816 272 0
FLAG 64 272 0
FLAG 1040 336 0
FLAG 1040 32 Vdd
FLAG 1488 256 0
FLAG 1488 160 Vdd
FLAG 1456 112 clk_bar
FLAG 1520 304 clk
FLAG 1584 272 0
FLAG 2112 736 0
FLAG 2112 432 Vdd
FLAG 1728 624 0
FLAG 1728 528 Vdd
FLAG 1760 672 clk_bar
FLAG 1696 480 clk
FLAG 2400 336 0
FLAG 2400 32 Vdd
SYMBOL nmos4 -240 304 R270
WINDOW 0 -10 -58 Left 2
WINDOW 3 -50 -21 Left 2
SYMATTR InstName M1
SYMATTR Value cmosn
SYMATTR Value2 l=0.18u w=1u
SYMBOL pmos4 -144 112 R90
WINDOW 0 -39 -49 Left 2
WINDOW 3 -67 -18 Left 2
SYMATTR InstName M2
SYMATTR Value cmosp
SYMATTR Value2 l=0.18u w=2u
SYMBOL nmos4 256 240 R0
SYMATTR InstName M3
SYMATTR Value2 l=0.18u w=1u
SYMATTR Value cmosn
SYMBOL nmos4 656 640 M0
SYMATTR InstName M4
SYMATTR Value2 l=0.18u w=1u
SYMATTR Value cmosn
SYMBOL nmos4 240 672 R270
WINDOW 0 -10 -58 Left 2
WINDOW 3 -50 -21 Left 2
SYMATTR InstName M5
SYMATTR Value cmosn
SYMATTR Value2 l=0.18u w=1u
SYMBOL pmos4 336 480 R90
WINDOW 0 -39 -49 Left 2
WINDOW 3 -67 -18 Left 2
SYMATTR InstName M6
SYMATTR Value cmosp
SYMATTR Value2 l=0.18u w=2u
SYMBOL pmos4 256 32 R0
WINDOW 0 -39 -49 Left 2
WINDOW 3 -67 -18 Left 2
SYMATTR InstName M7
SYMATTR Value cmosp
SYMATTR Value2 l=0.18u w=2u
SYMBOL pmos4 656 480 M0
WINDOW 0 -39 -49 Left 2
WINDOW 3 -67 -18 Left 2
SYMATTR InstName M8
SYMATTR Value cmosp
SYMATTR Value2 l=0.18u w=2u
SYMBOL nmos4 1776 240 R0
SYMATTR InstName M11
SYMATTR Value2 l=0.18u w=1u
SYMATTR Value cmosn
SYMBOL pmos4 1776 32 R0
WINDOW 0 -39 -49 Left 2
WINDOW 3 -67 -18 Left 2
SYMATTR InstName M15
SYMATTR Value cmosp
SYMATTR Value2 l=0.18u w=2u
SYMBOL voltage 1472 -416 R0
WINDOW 123 0 0 Left 0
WINDOW 39 0 0 Left 0
SYMATTR InstName V1
SYMATTR Value 1.3
SYMBOL voltage 1712 -416 R0
WINDOW 123 0 0 Left 0
WINDOW 39 0 0 Left 0
SYMATTR InstName V2
SYMATTR Value PULSE(0 1.3 3.33 0.1 0.1 3 6)
SYMBOL nmos4 -400 -128 R0
SYMATTR InstName M17
SYMATTR Value2 l=0.13u w=0.13u
SYMBOL pmos4 -400 -336 R0
SYMATTR InstName M18
SYMATTR Value2 l=0.13u w=0.13u
SYMBOL voltage 496 -400 R0
WINDOW 123 0 0 Left 0
WINDOW 39 0 0 Left 0
SYMATTR InstName V3
SYMATTR Value PULSE(0 1.3 0 0 0 5 20)
SYMBOL cap 800 208 R0
SYMATTR InstName C1
SYMATTR Value 10µ
SYMBOL cap 48 208 R0
SYMATTR InstName C3
SYMATTR Value 10µ
SYMBOL nmos4 992 240 R0
SYMATTR InstName M19
SYMATTR Value2 l=0.18u w=1u
SYMATTR Value cmosn
SYMBOL pmos4 992 32 R0
WINDOW 0 -39 -49 Left 2
WINDOW 3 -67 -18 Left 2
SYMATTR InstName M20
SYMATTR Value cmosp
SYMATTR Value2 l=0.18u w=2u
SYMBOL nmos4 1440 304 R270
WINDOW 0 -10 -58 Left 2
WINDOW 3 -50 -21 Left 2
SYMATTR InstName M9
SYMATTR Value cmosn
SYMATTR Value2 l=0.18u w=1u
SYMBOL pmos4 1536 112 R90
WINDOW 0 -39 -49 Left 2
WINDOW 3 -67 -18 Left 2
SYMATTR InstName M10
SYMATTR Value cmosp
SYMATTR Value2 l=0.18u w=2u
SYMBOL cap 1568 208 R0
SYMATTR InstName C4
SYMATTR Value 10µ
SYMBOL nmos4 2064 640 R0
SYMATTR InstName M12
SYMATTR Value2 l=0.18u w=1u
SYMATTR Value cmosn
SYMBOL pmos4 2064 432 R0
WINDOW 0 -39 -49 Left 2
WINDOW 3 -67 -18 Left 2
SYMATTR InstName M13
SYMATTR Value cmosp
SYMATTR Value2 l=0.18u w=2u
SYMBOL nmos4 1680 672 R270
WINDOW 0 -10 -58 Left 2
WINDOW 3 -50 -21 Left 2
SYMATTR InstName M14
SYMATTR Value cmosn
SYMATTR Value2 l=0.18u w=1u
SYMBOL pmos4 1776 480 R90
WINDOW 0 -39 -49 Left 2
WINDOW 3 -67 -18 Left 2
SYMATTR InstName M16
SYMATTR Value cmosp
SYMATTR Value2 l=0.18u w=2u
SYMBOL nmos4 2352 240 R0
SYMATTR InstName M21
SYMATTR Value2 l=0.18u w=1u
SYMATTR Value cmosn
SYMBOL pmos4 2352 32 R0
WINDOW 0 -39 -49 Left 2
WINDOW 3 -67 -18 Left 2
SYMATTR InstName M22
SYMATTR Value cmosp
SYMATTR Value2 l=0.18u w=2u
TEXT 2728 -488 Left 2 !.model cmosn NMOS(\n \n+ lmin = 1.45e-07 lmax = 1.55e-07 wmin = 1.255e-06 wmax = 1.265e-06\n+ level = 54 \n+ tnom = 30 \n+ version = 4.5 \n+ toxm = 4.148e-009 \n+ xj = 1.5e-007 \n+ lln = 1 \n+ lwn = 1 \n+ wln = 1 \n+ wwn = 1 \n+ lint = 1.1932e-008+0.0 \n+ ll = 0 \n+ lw = 0 \n+ lwl = 0 \n+ wint = 2.1859e-008+0.0 \n+ wl = 0 \n+ ww = 0 \n+ wwl = 0 \n+ xl = 0 \n+ xw = 0 \n+ mobmod = 0 \n+ binunit = 2 \n+ dwg = 0 \n+ dwb = 0 \n \n+ igcmod = 0 \n+ igbmod = 0 \n+ rgatemod = 0 \n+ rbodymod = 1 \n+ trnqsmod = 0 \n+ acnqsmod = 0 \n+ fnoimod = 1 \n+ tnoimod = 1 \n+ permod = 1 \n+ geomod = 0 \n+ rdsmod = 0 \n+ tempmod = 0 \n \n+ lintnoi = -1.0e-07 \n+ vfbsdoff = 0 \n+ lambda = 0 \n+ vtl = 0 \n+ lc = 5e-009 \n+ xn = 3 \n+ rnoia = 0.94\n+ rnoib = 0.26\n+ tnoia = 1.5e7\n+ tnoib = 9.9e6\n \n+ epsrox = 3.9 \n+ toxe = 4.148e-009 \n+ dtox = 0 \n+ ndep = 1.7e+017 \n+ nsd = 1e+020 \n+ rshg = 0.1 \n \n+ rsh = 1 \n \n+ vth0 = 0.49439+0.0 \n+ k1 = 0.90707349 \n+ k2 = -0.12949+0.0 \n+ k3 = 2 \n+ dvt0 = 0 \n+ dvt1 = 0.53 \n+ dvt2 = -0.032 \n+ dvt0w = -3.58 \n+ dvt1w = 1670600 \n+ dvt2w = 0.068 \n+ w0 = 0 \n+ k3b = 0.54 \n \n+ phin = 0 \n+ lpe0 = 1.0325e-007 \n+ lpeb = -7.082e-008 \n+ vbm = -3 \n+ dvtp0 = 0 \n+ dvtp1 = 0 \n \n+ vsat = 176320+0.0 \n+ ua = -1.1926e-009+0.0 \n+ ub = 2.1846e-018+0.0 \n+ uc = 8.1022e-011 \n+ rdsw = 65.968+0.0 \n+ prwb = 0 \n+ prwg = 0.021507 \n+ wr = 1 \n+ u0 = 0.030197+0.0 \n+ a0 = 1.5+0.0 \n+ keta = 0+0.0 \n+ a1 = 0 \n+ a2 = 0.42385546 \n+ ags = 1.25+0.0 \n+ b0 = 0+0.0 \n+ b1 = 0+0.0 \n \n+ eu = 1.67 \n+ rdswmin = 0 \n+ rdw = 0 \n+ rdwmin = 0 \n+ rsw = 0 \n+ rswmin = 0 \n \n+ voff = -0.20753+0.0 \n+ nfactor = 2.015+0.0 \n+ up = 0.0\n+ ud = 0.0\n+ lp = 1.0\n+ tvfbsdoff = 0.0\n+ tvoff = 0+0.0\n+ cit = 0 \n+ cdsc = 0 \n+ cdscb = 0 \n+ cdscd = 0.002052 \n+ eta0 = 0.00069413878+0.0 \n+ etab = -0.043998 \n+ dsub = 0.45862506 \n \n+ voffl = 5.8197729e-009 \n+ minv = 0 \n \n+ pclm = 0.14094+0.0 \n+ pdiblc1 = 0.35697215 \n+ pdiblc2 = 0.0084061121 \n+ pdiblcb = -0.10329577 \n+ drout = 0.50332666 \n+ pscbe1 = 7.9141988e+008 \n+ pscbe2 = 1e-012 \n+ pvag = 0 \n+ delta = 0.01 \n+ alpha0 = 3e-008 \n+ alpha1 = 0.85 \n+ beta0 = 13.85 \n+ fprout = 0 \n+ pdits = 0+0.0 \n+ pditsl = 0 \n+ pditsd = 0+0.0 \n+ agidl = 0 \n+ bgidl = 2.3e+009 \n+ cgidl = 0.5 \n+ egidl = 0.8 \n \n+ aigbacc = 1 \n+ bigbacc = 0 \n+ cigbacc = 0 \n+ nigbacc = 0 \n+ aigbinv = 0.35 \n+ bigbinv = 0.03 \n+ cigbinv = 0.006 \n+ eigbinv = 1.1 \n+ nigbinv = 0 \n+ aigc = 0.43 \n+ bigc = 0.054 \n+ cigc = 0.075 \n+ nigc = 0 \n+ aigsd = 0.43 \n+ bigsd = 0.054 \n+ cigsd = 0.075 \n+ dlcig = 0 \n+ poxedge = 1 \n+ pigcd = 1 \n+ ntox = 1 \n+ toxref = 4.148e-009 \n \n+ kt1 = -0.22096074+0.0 \n+ kt2 = -0.028878939 \n+ at = 40720.487 \n+ ute = -1.3190432 \n+ ua1 = -2.3847336e-011 \n+ ub1 = 7.0775317e-019 \n+ uc1 = 1.4718625e-010 \n+ kt1l = 0 \n+ prt = 0 \n \n+ xrcrg1 = 12 \n+ xrcrg2 = 1 \n+ rbpb = 50 \n+ rbpd = 50 \n+ rbps = 50 \n+ rbdb = 50 \n+ rbsb = 50 \n+ gbmin = 1e-012 \n \n+ noia = 2.5e+42 \n+ noib = 0.0 \n+ noic = 0.0 \n+ em = 4.1000000E+07 \n+ af = 1 \n+ ef = 0.84 \n+ kf = 0 \n+ ntnoi = 1 \n \n+ dmcg = 0 \n+ dmcgt = 0 \n+ dmdg = 0 \n+ xgw = 0 \n+ xgl = 0 \n+ ngcon = 1 \n \n+ diomod = 1 \n+ njs = 1.2928 \n+ jss = 0.0027500000000000003 \n+ jsws = 6e-10 \n+ xtis = 2 \n+ bvs = 11.7 \n+ xjbvs = 1 \n+ ijthsrev = 0.1 \n+ ijthsfwd = 0.1 \n+ tpb = 0.0012287 \n+ tpbsw = 0 \n+ tpbswg = 0 \n+ tcj = 0.000792 \n+ tcjsw = 1e-005 \n+ tcjswg = 0 \n+ cgdo = 2.54e-010 \n+ cgso = 2.54e-010 \n+ cgbo = 1e-013 \n+ capmod = 2 \n+ xpart = 0 \n+ cgsl = 0 \n+ cgdl = 0 \n+ cf = 1.4067e-012 \n+ clc = 1e-007 \n+ cle = 0.6 \n+ dlc = 1.0494e-008+0.0+0.0 \n+ dwc = 0+0.0 \n+ vfbcv = -1 \n+ acde = 0.4 \n+ moin = 6.9 \n+ noff = 3.4037 \n+ voffcv = -0.17287 \n+ ngate = 1e+023 \n+ lwc = 0 \n+ llc = 0 \n+ lwlc = 0 \n+ wlc = 0 \n+ wwc = 0 \n+ wwlc = 0 \n+ ckappas = 0.6 \n+ cjs = 0.0013459 \n+ mjs = 0.44 \n+ pbs = 0.729 \n+ cjsws = 3.6001e-011 \n+ mjsws = 0.0009 \n+ pbsws = 0.2 \n+ cjswgs = 2.3347e-010 \n+ mjswgs = 0.8000 \n+ pbswgs = 0.95578 \n \n+ saref = 1.04e-06\n+ sbref = 1.04e-06\n+ wlod = 0\n+ kvth0 = 9.8e-9\n+ lkvth0 = 0\n+ wkvth0 = 0.2e-6\n+ pkvth0 = 0\n+ llodvth = 0\n+ wlodvth = 1\n+ stk2 = 0\n+ lodk2 = 1\n+ lodeta0 = 1\n+ ku0 = -2.7e-08\n+ lku0 = 0\n+ wku0 = 0\n+ pku0 = 0\n+ llodku0 = 0\n+ wlodku0 = 1\n+ kvsat = 0.2\n+ steta0 = 0\n+ tku0 = 0\n+)
TEXT -448 1856 Left 2 !.tran 200
TEXT 3672 -496 Left 2 !.model cmosp PMOS (\n \n+ lmin = 1.45e-07 lmax = 1.55e-07 wmin = 1.255e-06 wmax = 1.265e-06\n+ level = 54 \n+ tnom = 30 \n+ version = 4.5 \n+ toxm = 4.23e-009 \n+ xj = 1.5e-007 \n+ lln = 1 \n+ lwn = 1 \n+ wln = 1 \n+ wwn = 1 \n+ lint = -1.3994e-008+0.0 \n+ ll = 0 \n+ lw = 0 \n+ lwl = 0 \n+ wint = 7.3039e-009+0.0 \n+ wl = 0 \n+ ww = 0 \n+ wwl = 0 \n+ xl = 0 \n+ xw = 0 \n+ mobmod = 0 \n+ binunit = 2 \n+ dwg = -5.722e-009 \n+ dwb = -1.7864e-008 \n+ igcmod = 0 \n+ igbmod = 0 \n+ rgatemod = 0 \n+ rbodymod = 1 \n+ trnqsmod = 0 \n+ acnqsmod = 0 \n+ fnoimod = 1 \n+ tnoimod = 1 \n+ permod = 1 \n+ geomod = 0 \n+ rdsmod = 0 \n+ tempmod = 0 \n \n+ lintnoi = -2.0e-07 \n+ vfbsdoff = 0 \n+ lambda = 0 \n+ vtl = 0 \n+ lc = 5e-009 \n+ xn = 3 \n+ rnoia = 0.69 \n+ rnoib = 0.34 \n+ tnoia = 25e6 \n+ tnoib = 0.0e-6 \n+ epsrox = 3.9 \n+ toxe = 4.23e-009 \n+ dtox = 0 \n+ ndep = 1.7e+017 \n+ nsd = 1e+020 \n+ rshg = 0.1 \n \n+ rsh = 1 \n \n+ vth0 = -1.0652+0.0 \n+ k1 = 1.3152469 \n+ k2 = -0.27798063+0.0 \n+ k3 = -15.845 \n+ dvt0 = 4.4955 \n+ dvt1 = 0.294 \n+ dvt2 = 0.015 \n+ dvt0w = -4.9772 \n+ dvt1w = 1147200 \n+ dvt2w = -0.00896 \n+ w0 = 0 \n+ k3b = 2 \n \n+ phin = 0 \n+ lpe0 = 0 \n+ lpeb = 0 \n+ vbm = -3 \n+ dvtp0 = 0 \n+ dvtp1 = 0 \n \n+ vsat = 68611+0.0 \n+ ua = -2.4423e-009+0.0 \n+ ub = 2.0699352e-018+0.0 \n+ uc = 1.6133739e-013 \n+ rdsw = 547.88+0.0 \n+ prwb = -0.32348 \n+ prwg = 0.1376 \n+ wr = 1 \n+ u0 = 0.0025134+0.0 \n+ a0 = 0.91285081+0.0 \n+ keta = -0.020464881+0.0 \n+ a1 = 0 \n+ a2 = 0.87366558 \n+ ags = 1.25+0.0 \n+ b0 = 0+0.0 \n+ b1 = 0+0.0 \n \n+ eu = 1.67 \n+ rdswmin = 0 \n+ rdw = 0 \n+ rdwmin = 0 \n+ rsw = 0 \n+ rswmin = 0 \n+ voff = -0.25076476+0.0 \n+ nfactor = 1.9+0.0 \n+ up = 0.0\n+ ud = 0.0\n+ lp = 1.0\n+ tvfbsdoff = 0.0\n+ tvoff = 0+0.0\n+ cit = 1e-005 \n+ cdsc = 0.00013 \n+ cdscb = 0.00078 \n+ cdscd = 0 \n+ eta0 = 0.21064695+0.0 \n+ etab = -0.014728557 \n+ dsub = 0.26 \n+ voffl = 0 \n+ minv = 0 \n+ pclm = 0.61630162+0.0 \n+ pdiblc1 = 0.14215108 \n+ pdiblc2 = 0.0026509038 \n+ pdiblcb = -0.15188768 \n+ drout = 1 \n+ pscbe1 = 8e+008 \n+ pscbe2 = 9.1788025e-009 \n+ pvag = 0 \n+ delta = 0.01 \n+ alpha0 = 1e-010 \n+ alpha1 = 1e-010 \n+ beta0 = 7.9381315 \n+ fprout = 0 \n+ pdits = 0+0.0 \n+ pditsl = 0 \n+ pditsd = 0+0.0 \n \n+ agidl = 4.0078966e-010+0.0 \n+ bgidl = 1e009+0.0 \n+ cgidl = 300+0.0 \n+ egidl = 0.1 \n+ aigbacc = 0.43 \n+ bigbacc = 0.054 \n+ cigbacc = 0.075 \n+ nigbacc = 1 \n+ aigbinv = 0.35 \n+ bigbinv = 0.03 \n+ cigbinv = 0.006 \n+ eigbinv = 1.1 \n+ nigbinv = 3 \n+ aigc = 0.43 \n+ bigc = 0.054 \n+ cigc = 0.075 \n+ nigc = 1 \n+ aigsd = 0.43 \n+ bigsd = 0.054 \n+ cigsd = 0.075 \n+ dlcig = 0 \n+ poxedge = 1 \n+ pigcd = 1 \n+ ntox = 1 \n+ toxref = 4.23e-009 \n \n+ kt1 = -0.70976+0.0 \n+ kt2 = -0.12 \n+ at = 50942 \n+ ute = -0.21243 \n+ ua1 = 1.8303e-010 \n+ ub1 = 3.6891e-019 \n+ uc1 = 6.4484e-012 \n+ kt1l = 0 \n+ prt = 0 \n \n+ xrcrg1 = 12 \n+ xrcrg2 = 1 \n+ rbpb = 50 \n+ rbpd = 50 \n+ rbps = 50 \n+ rbdb = 50 \n+ rbsb = 50 \n+ gbmin = 1e-012 \n \n+ noia = 1.5e+42 \n+ noib = 0.0 \n+ noic = 0.0 \n+ em = 4.1000000E+07 \n+ af = 1 \n+ ef = 1.0 \n+ kf = 0 \n+ ntnoi = 1 \n+ dmcg = 0 \n+ dmcgt = 0 \n+ dmdg = 0 \n+ xgw = 0 \n+ xgl = 0 \n+ ngcon = 1 \n \n+ diomod = 1 \n+ njs = 1.3632 \n+ jss = 2.1483e-05 \n+ jsws = 8.040000000000001e-10 \n+ xtis = 5.2 \n+ bvs = 12.69 \n+ xjbvs = 1 \n+ ijthsrev = 0.1 \n+ ijthsfwd = 0.1 \n \n+ tpb = 0.0020386 \n+ tpbsw = 0.001246 \n+ tpbswg = 0 \n+ tcj = 0.0012407 \n+ tcjsw = 0.00037357 \n+ tcjswg = 2e-012 \n+ cgdo = 5.5e-11 \n+ cgso = 5.5e-11 \n+ cgbo = 0 \n+ capmod = 2 \n+ xpart = 0 \n+ cgsl = 1.0005e-011 \n+ cgdl = 1.0005e-011 \n+ cf = 1.2e-011 \n+ clc = 1e-007 \n+ cle = 0.6 \n+ dlc = -3e-09+0.0+0.0 \n+ dwc = 0+0.0 \n+ vfbcv = -0.14469 \n+ acde = 0.8 \n+ moin = 18.13 \n+ noff = 3.9 \n+ voffcv = -0.10701 \n+ ngate = 1e+023 \n+ lwc = 0 \n+ llc = 0 \n+ lwlc = 0 \n+ wlc = 0 \n+ wwc = 0 \n+ wwlc = 0 \n \n+ ckappas = 0.6 \n+ cjs = 0.00074079 \n+ mjs = 0.34629 \n+ pbs = 0.6587 \n+ cjsws = 9.88e-011 \n+ mjsws = 0.29781 \n+ pbsws = 0.7418 \n+ cjswgs = 2.3894e-010 \n+ mjswgs = 0.9274 \n+ pbswgs = 1.4338 \n \n+ saref = 1.04e-06\n+ sbref = 1.04e-06\n+ wlod = 0+0.0\n+ kvth0 = 0+0.0\n+ lkvth0 = 0+0.0\n+ wkvth0 = 0+0.0\n+ pkvth0 = 0\n+ llodvth = 0\n+ wlodvth = 1\n+ stk2 = 0\n+ lodk2 = 1\n+ lodeta0 = 1\n+ ku0 = 0+0.0\n+ lku0 = 0+0.0\n+ wku0 = 0+0.0\n+ pku0 = 0\n+ llodku0 = 0\n+ wlodku0 = 1\n+ kvsat = 0+0.0\n+ steta0 = 0\n+ tku0 = 0\n+)
