Version 4
SHEET 1 1488 876
WIRE 432 96 432 0
WIRE 432 96 64 96
WIRE 800 96 432 96
WIRE 1168 96 800 96
WIRE 64 144 64 112
WIRE 432 144 432 112
WIRE 800 144 800 112
WIRE 1168 144 1168 112
WIRE 64 224 64 192
WIRE 432 224 432 192
WIRE 432 224 64 224
WIRE 800 224 800 192
WIRE 800 224 432 224
WIRE 1168 224 1168 192
WIRE 1168 224 800 224
WIRE 432 272 432 240
WIRE 432 352 432 320
WIRE 752 352 432 352
WIRE 432 400 432 352
WIRE 752 400 752 352
WIRE 432 480 432 448
WIRE 752 480 752 448
WIRE 432 512 432 496
WIRE 432 592 432 560
WIRE 432 624 432 608
WIRE 432 704 432 672
WIRE 432 736 432 720
WIRE 432 816 432 784
FLAG 432 832 0
FLAG 432 0 Vdd
FLAG 752 496 0
FLAG -592 -112 0
FLAG -240 -112 0
FLAG -80 -112 0
FLAG -592 -192 A1
FLAG -240 -192 A2
FLAG -80 -192 A3
FLAG 160 -192 Vdd
FLAG 160 -112 0
FLAG -368 144 0
FLAG -368 64 A4
FLAG -208 144 0
FLAG -208 64 B1
FLAG 16 176 A1
FLAG 384 176 A2
FLAG 752 176 A3
FLAG 1120 176 A4
FLAG 384 304 B1
FLAG 800 480 B1
FLAG 384 480 A1
FLAG 384 592 A2
FLAG 384 704 A3
FLAG 384 816 A4
FLAG 752 352 Y
SYMBOL pmos4 16 96 R0
SYMATTR InstName X1
SYMATTR Value2 l=0.13u w=4u
SYMATTR Value sky130_fd_pr__pfet_01v8
SYMBOL nmos4 384 400 R0
WINDOW 3 -320 50 Left 2
SYMATTR InstName X2
SYMATTR Value2 l=0.13u w=2u
SYMATTR Value sky130_fd_pr__nfet_01v8
SYMBOL pmos4 384 96 R0
SYMATTR InstName X3
SYMATTR Value2 l=0.13u w=4u
SYMATTR Value sky130_fd_pr__pfet_01v8
SYMBOL pmos4 752 96 R0
SYMATTR InstName X4
SYMATTR Value2 l=0.13u w=4u
SYMATTR Value sky130_fd_pr__pfet_01v8
SYMBOL pmos4 1120 96 R0
SYMATTR InstName X5
SYMATTR Value2 l=0.13u w=4u
SYMATTR Value sky130_fd_pr__pfet_01v8
SYMBOL pmos4 384 224 R0
SYMATTR InstName X6
SYMATTR Value2 l=0.13u w=4u
SYMATTR Value sky130_fd_pr__pfet_01v8
SYMBOL nmos4 800 400 M0
SYMATTR InstName X7
SYMATTR Value2 l=0.13u w=2u
SYMATTR Value sky130_fd_pr__nfet_01v8
SYMBOL nmos4 384 512 R0
SYMATTR InstName X8
SYMATTR Value2 l=0.13u w=2u
SYMATTR Value sky130_fd_pr__nfet_01v8
SYMBOL nmos4 384 624 R0
SYMATTR InstName X9
SYMATTR Value2 l=0.13u w=2u
SYMATTR Value sky130_fd_pr__nfet_01v8
SYMBOL nmos4 384 736 R0
SYMATTR InstName X10
SYMATTR Value2 l=0.13u w=2u
SYMATTR Value sky130_fd_pr__nfet_01v8
SYMBOL voltage -592 -208 R0
WINDOW 123 0 0 Left 0
WINDOW 39 0 0 Left 0
SYMATTR InstName V1
SYMATTR Value PULSE(0 1.8 0 0 0 5 10)
SYMBOL voltage -240 -208 R0
WINDOW 123 0 0 Left 0
WINDOW 39 0 0 Left 0
SYMATTR InstName V2
SYMATTR Value 0
SYMBOL voltage -80 -208 R0
WINDOW 123 0 0 Left 0
WINDOW 39 0 0 Left 0
SYMATTR InstName V3
SYMATTR Value 1.8
SYMBOL voltage 160 -208 R0
WINDOW 123 0 0 Left 0
WINDOW 39 0 0 Left 0
SYMATTR InstName V4
SYMATTR Value 1.8
SYMBOL voltage -368 48 R0
WINDOW 123 0 0 Left 0
WINDOW 39 0 0 Left 0
SYMATTR InstName V5
SYMATTR Value 1.8
SYMBOL voltage -208 48 R0
WINDOW 123 0 0 Left 0
WINDOW 39 0 0 Left 0
SYMATTR InstName V6
SYMATTR Value 1.8
