Version 4
SHEET 1 2248 7712
WIRE -3440 832 -3744 832
WIRE -3248 832 -3440 832
WIRE -3088 832 -3248 832
WIRE -2928 832 -3088 832
WIRE -2704 832 -2928 832
WIRE -2480 832 -2704 832
WIRE -2272 864 -2272 832
WIRE -3744 880 -3744 848
WIRE -3440 880 -3440 848
WIRE -3248 880 -3248 848
WIRE -2928 880 -2928 848
WIRE -2704 880 -2704 848
WIRE -2480 880 -2480 848
WIRE -2272 928 -2272 912
WIRE -3440 960 -3440 928
WIRE -3344 960 -3440 960
WIRE -3248 960 -3248 928
WIRE -3248 960 -3344 960
WIRE -2928 960 -2928 928
WIRE -2704 960 -2704 928
WIRE -2704 960 -2928 960
WIRE -2480 960 -2480 928
WIRE -2480 960 -2704 960
WIRE -2272 976 -2272 944
WIRE -3744 992 -3744 928
WIRE -3344 992 -3344 960
WIRE -2704 992 -2704 960
WIRE -3744 1040 -3744 1008
WIRE -3344 1040 -3344 1008
WIRE -2704 1040 -2704 1008
WIRE -2272 1040 -2272 1024
WIRE -2752 1072 -2800 1072
WIRE -1712 1072 -1712 1040
WIRE -2272 1088 -2272 1056
WIRE -1760 1104 -1872 1104
WIRE -1712 1136 -1712 1120
WIRE -1568 1136 -1712 1136
WIRE -3744 1152 -3744 1088
WIRE -3344 1152 -3344 1088
WIRE -3344 1152 -3744 1152
WIRE -2800 1152 -2800 1072
WIRE -2800 1152 -3344 1152
WIRE -2704 1152 -2704 1088
WIRE -2272 1152 -2272 1136
WIRE -2272 1152 -2704 1152
WIRE -1872 1152 -1872 1104
WIRE -1872 1152 -2272 1152
WIRE -1712 1152 -1712 1136
WIRE -2272 1168 -2272 1152
WIRE -2704 1184 -2704 1152
WIRE -3744 1200 -3744 1152
WIRE -3344 1200 -3344 1152
WIRE -1872 1232 -1872 1152
WIRE -1760 1232 -1872 1232
WIRE -1712 1232 -1712 1200
WIRE -2272 1248 -2272 1216
WIRE -2800 1264 -2800 1152
WIRE -2752 1264 -2800 1264
WIRE -2704 1264 -2704 1232
WIRE -3744 1280 -3744 1248
WIRE -3344 1280 -3344 1248
WIRE -2272 1280 -2272 1264
WIRE -3344 1328 -3344 1296
WIRE -3344 1328 -3440 1328
WIRE -3248 1328 -3344 1328
WIRE -3744 1360 -3744 1296
WIRE -3440 1360 -3440 1328
WIRE -3248 1360 -3248 1328
WIRE -2704 1360 -2704 1280
WIRE -2704 1360 -2928 1360
WIRE -2480 1360 -2704 1360
WIRE -2272 1360 -2272 1328
WIRE -2272 1392 -2272 1376
WIRE -3744 1440 -3744 1408
WIRE -3440 1440 -3440 1408
WIRE -3248 1440 -3248 1408
WIRE -2928 1440 -2928 1408
WIRE -2704 1440 -2704 1408
WIRE -2480 1440 -2480 1408
WIRE -2272 1472 -2272 1440
FLAG -3744 1456 0
FLAG -3440 1456 0
FLAG -3248 1456 0
FLAG -2928 1456 0
FLAG -2704 1456 0
FLAG -2480 1456 0
FLAG -2272 1488 0
FLAG -1712 1248 0
FLAG -3088 832 Vdd
FLAG -2272 816 Vdd
FLAG -1712 1024 Vdd
FLAG -1568 1136 Y
FLAG -3312 464 0
FLAG -3168 464 0
FLAG -3008 464 0
FLAG -3312 384 A
FLAG -3168 384 B
FLAG -3008 384 C
FLAG -3792 912 A
FLAG -3488 912 A
FLAG -3792 1072 B
FLAG -3200 912 B
FLAG -3392 1072 C
FLAG -2976 912 C
FLAG -2752 912 A
FLAG -2432 912 B
FLAG -3792 1280 B
FLAG -3392 1280 C
FLAG -3792 1440 A
FLAG -3488 1440 B
FLAG -3200 1440 A
FLAG -2752 1440 A
FLAG -2432 1440 B
FLAG -2976 1440 C
FLAG -2320 896 A
FLAG -2320 1008 B
FLAG -2320 1120 C
FLAG -2320 1248 A
FLAG -2320 1360 B
FLAG -2320 1472 C
FLAG -2768 384 Vdd
FLAG -2768 464 0
SYMBOL pmos4 -3792 832 R0
WINDOW 3 -299 51 Left 2
SYMATTR InstName M3
SYMATTR Value2 l=0.13u w=4u
SYMATTR Value sky130_fd_pr__pfet_01v8
SYMBOL nmos4 -3792 1200 R0
WINDOW 3 -315 59 Left 2
SYMATTR InstName M4
SYMATTR Value2 l=0.13u w=2u
SYMATTR Value sky130_fd_pr__nfet_01v8
SYMBOL pmos4 -3488 832 R0
WINDOW 3 -174 -26 Left 2
SYMATTR InstName M1
SYMATTR Value2 l=0.13u w=4u
SYMATTR Value sky130_fd_pr__pfet_01v8
SYMBOL pmos4 -3200 832 M0
WINDOW 3 -101 104 Left 2
SYMATTR InstName M2
SYMATTR Value2 l=0.13u w=4u
SYMATTR Value sky130_fd_pr__pfet_01v8
SYMBOL pmos4 -3792 992 R0
WINDOW 3 -314 58 Left 2
SYMATTR InstName M5
SYMATTR Value2 l=0.13u w=4u
SYMATTR Value sky130_fd_pr__pfet_01v8
SYMBOL pmos4 -3392 992 R0
SYMATTR InstName M6
SYMATTR Value2 l=0.13u w=4u
SYMATTR Value sky130_fd_pr__pfet_01v8
SYMBOL pmos4 -2976 832 R0
WINDOW 3 -87 106 Left 2
SYMATTR InstName M7
SYMATTR Value2 l=0.13u w=4u
SYMATTR Value sky130_fd_pr__pfet_01v8
SYMBOL pmos4 -2752 832 R0
WINDOW 3 -119 -23 Left 2
SYMATTR InstName M8
SYMATTR Value2 l=0.13u w=4u
SYMATTR Value sky130_fd_pr__pfet_01v8
SYMBOL pmos4 -2432 832 M0
WINDOW 3 -74 111 Left 2
SYMATTR InstName M9
SYMATTR Value2 l=0.13u w=4u
SYMATTR Value sky130_fd_pr__pfet_01v8
SYMBOL pmos4 -2752 992 R0
WINDOW 3 -110 -1 Left 2
SYMATTR InstName M10
SYMATTR Value2 l=0.13u w=4u
SYMATTR Value sky130_fd_pr__pfet_01v8
SYMBOL nmos4 -3392 1200 R0
SYMATTR InstName M11
SYMATTR Value2 l=0.13u w=2u
SYMATTR Value sky130_fd_pr__nfet_01v8
SYMBOL nmos4 -3792 1360 R0
WINDOW 3 -315 63 Left 2
SYMATTR InstName M12
SYMATTR Value2 l=0.13u w=2u
SYMATTR Value sky130_fd_pr__nfet_01v8
SYMBOL nmos4 -3488 1360 R0
WINDOW 3 -152 133 Left 2
SYMATTR InstName M13
SYMATTR Value2 l=0.13u w=2u
SYMATTR Value sky130_fd_pr__nfet_01v8
SYMBOL nmos4 -3200 1360 M0
WINDOW 3 -92 -4 Left 2
SYMATTR InstName M14
SYMATTR Value2 l=0.13u w=2u
SYMATTR Value sky130_fd_pr__nfet_01v8
SYMBOL nmos4 -2752 1184 R0
SYMATTR InstName M15
SYMATTR Value2 l=0.13u w=4u
SYMATTR Value sky130_fd_pr__nfet_01v8
SYMBOL nmos4 -2976 1360 R0
WINDOW 3 -158 -37 Left 2
SYMATTR InstName M16
SYMATTR Value2 l=0.13u w=4u
SYMATTR Value sky130_fd_pr__nfet_01v8
SYMBOL nmos4 -2752 1360 R0
WINDOW 3 -105 135 Left 2
SYMATTR InstName M17
SYMATTR Value2 l=0.13u w=4u
SYMATTR Value sky130_fd_pr__nfet_01v8
SYMBOL nmos4 -2432 1360 M0
WINDOW 3 -72 -25 Left 2
SYMATTR InstName M18
SYMATTR Value2 l=0.13u w=4u
SYMATTR Value sky130_fd_pr__nfet_01v8
SYMBOL pmos4 -2320 816 R0
SYMATTR InstName M19
SYMATTR Value2 l=0.13u w=6u
SYMATTR Value sky130_fd_pr__pfet_01v8
SYMBOL pmos4 -2320 928 R0
SYMATTR InstName M20
SYMATTR Value2 l=0.13u w=6u
SYMATTR Value sky130_fd_pr__pfet_01v8
SYMBOL pmos4 -2320 1040 R0
WINDOW 3 -257 27 Left 2
SYMATTR InstName M21
SYMATTR Value2 l=0.13u w=6u
SYMATTR Value sky130_fd_pr__pfet_01v8
SYMBOL nmos4 -2320 1168 R0
SYMATTR InstName M22
SYMATTR Value2 l=0.13u w=3u
SYMATTR Value sky130_fd_pr__nfet_01v8
SYMBOL nmos4 -2320 1280 R0
SYMATTR InstName M23
SYMATTR Value2 l=0.13u w=3u
SYMATTR Value sky130_fd_pr__nfet_01v8
SYMBOL nmos4 -2320 1392 R0
SYMATTR InstName M24
SYMATTR Value2 l=0.13u w=3u
SYMATTR Value sky130_fd_pr__nfet_01v8
SYMBOL pmos4 -1760 1024 R0
WINDOW 3 50 56 Left 2
SYMATTR InstName M25
SYMATTR Value2 l=0.13u w=2u
SYMATTR Value sky130_fd_pr__pfet_01v8
SYMBOL nmos4 -1760 1152 R0
WINDOW 3 63 61 Left 2
SYMATTR InstName M26
SYMATTR Value2 l=0.13u w=1u
SYMATTR Value sky130_fd_pr__nfet_01v8
SYMBOL voltage -3312 368 R0
WINDOW 123 0 0 Left 0
WINDOW 39 0 0 Left 0
SYMATTR InstName V1
SYMATTR Value PULSE(0 1.8 0 0 0 5 10)
SYMBOL voltage -3168 368 R0
WINDOW 123 0 0 Left 0
WINDOW 39 0 0 Left 0
SYMATTR InstName V2
SYMATTR Value 0
SYMBOL voltage -3008 368 R0
WINDOW 123 0 0 Left 0
WINDOW 39 0 0 Left 0
SYMATTR InstName V3
SYMATTR Value 1.3
SYMBOL voltage -2768 368 R0
WINDOW 123 0 0 Left 0
WINDOW 39 0 0 Left 0
SYMATTR InstName V4
SYMATTR Value 1.3
TEXT 352 88 Left 2 !.model cmosn NMOS(\n \n+ lmin = 1.45e-07 lmax = 1.55e-07 wmin = 1.255e-06 wmax = 1.265e-06\n+ level = 54 \n+ tnom = 30 \n+ version = 4.5 \n+ toxm = 4.148e-009 \n+ xj = 1.5e-007 \n+ lln = 1 \n+ lwn = 1 \n+ wln = 1 \n+ wwn = 1 \n+ lint = 1.1932e-008+0.0 \n+ ll = 0 \n+ lw = 0 \n+ lwl = 0 \n+ wint = 2.1859e-008+0.0 \n+ wl = 0 \n+ ww = 0 \n+ wwl = 0 \n+ xl = 0 \n+ xw = 0 \n+ mobmod = 0 \n+ binunit = 2 \n+ dwg = 0 \n+ dwb = 0 \n \n+ igcmod = 0 \n+ igbmod = 0 \n+ rgatemod = 0 \n+ rbodymod = 1 \n+ trnqsmod = 0 \n+ acnqsmod = 0 \n+ fnoimod = 1 \n+ tnoimod = 1 \n+ permod = 1 \n+ geomod = 0 \n+ rdsmod = 0 \n+ tempmod = 0 \n \n+ lintnoi = -1.0e-07 \n+ vfbsdoff = 0 \n+ lambda = 0 \n+ vtl = 0 \n+ lc = 5e-009 \n+ xn = 3 \n+ rnoia = 0.94\n+ rnoib = 0.26\n+ tnoia = 1.5e7\n+ tnoib = 9.9e6\n \n+ epsrox = 3.9 \n+ toxe = 4.148e-009 \n+ dtox = 0 \n+ ndep = 1.7e+017 \n+ nsd = 1e+020 \n+ rshg = 0.1 \n \n+ rsh = 1 \n \n+ vth0 = 0.49439+0.0 \n+ k1 = 0.90707349 \n+ k2 = -0.12949+0.0 \n+ k3 = 2 \n+ dvt0 = 0 \n+ dvt1 = 0.53 \n+ dvt2 = -0.032 \n+ dvt0w = -3.58 \n+ dvt1w = 1670600 \n+ dvt2w = 0.068 \n+ w0 = 0 \n+ k3b = 0.54 \n \n+ phin = 0 \n+ lpe0 = 1.0325e-007 \n+ lpeb = -7.082e-008 \n+ vbm = -3 \n+ dvtp0 = 0 \n+ dvtp1 = 0 \n \n+ vsat = 176320+0.0 \n+ ua = -1.1926e-009+0.0 \n+ ub = 2.1846e-018+0.0 \n+ uc = 8.1022e-011 \n+ rdsw = 65.968+0.0 \n+ prwb = 0 \n+ prwg = 0.021507 \n+ wr = 1 \n+ u0 = 0.030197+0.0 \n+ a0 = 1.5+0.0 \n+ keta = 0+0.0 \n+ a1 = 0 \n+ a2 = 0.42385546 \n+ ags = 1.25+0.0 \n+ b0 = 0+0.0 \n+ b1 = 0+0.0 \n \n+ eu = 1.67 \n+ rdswmin = 0 \n+ rdw = 0 \n+ rdwmin = 0 \n+ rsw = 0 \n+ rswmin = 0 \n \n+ voff = -0.20753+0.0 \n+ nfactor = 2.015+0.0 \n+ up = 0.0\n+ ud = 0.0\n+ lp = 1.0\n+ tvfbsdoff = 0.0\n+ tvoff = 0+0.0\n+ cit = 0 \n+ cdsc = 0 \n+ cdscb = 0 \n+ cdscd = 0.002052 \n+ eta0 = 0.00069413878+0.0 \n+ etab = -0.043998 \n+ dsub = 0.45862506 \n \n+ voffl = 5.8197729e-009 \n+ minv = 0 \n \n+ pclm = 0.14094+0.0 \n+ pdiblc1 = 0.35697215 \n+ pdiblc2 = 0.0084061121 \n+ pdiblcb = -0.10329577 \n+ drout = 0.50332666 \n+ pscbe1 = 7.9141988e+008 \n+ pscbe2 = 1e-012 \n+ pvag = 0 \n+ delta = 0.01 \n+ alpha0 = 3e-008 \n+ alpha1 = 0.85 \n+ beta0 = 13.85 \n+ fprout = 0 \n+ pdits = 0+0.0 \n+ pditsl = 0 \n+ pditsd = 0+0.0 \n+ agidl = 0 \n+ bgidl = 2.3e+009 \n+ cgidl = 0.5 \n+ egidl = 0.8 \n \n+ aigbacc = 1 \n+ bigbacc = 0 \n+ cigbacc = 0 \n+ nigbacc = 0 \n+ aigbinv = 0.35 \n+ bigbinv = 0.03 \n+ cigbinv = 0.006 \n+ eigbinv = 1.1 \n+ nigbinv = 0 \n+ aigc = 0.43 \n+ bigc = 0.054 \n+ cigc = 0.075 \n+ nigc = 0 \n+ aigsd = 0.43 \n+ bigsd = 0.054 \n+ cigsd = 0.075 \n+ dlcig = 0 \n+ poxedge = 1 \n+ pigcd = 1 \n+ ntox = 1 \n+ toxref = 4.148e-009 \n \n+ kt1 = -0.22096074+0.0 \n+ kt2 = -0.028878939 \n+ at = 40720.487 \n+ ute = -1.3190432 \n+ ua1 = -2.3847336e-011 \n+ ub1 = 7.0775317e-019 \n+ uc1 = 1.4718625e-010 \n+ kt1l = 0 \n+ prt = 0 \n \n+ xrcrg1 = 12 \n+ xrcrg2 = 1 \n+ rbpb = 50 \n+ rbpd = 50 \n+ rbps = 50 \n+ rbdb = 50 \n+ rbsb = 50 \n+ gbmin = 1e-012 \n \n+ noia = 2.5e+42 \n+ noib = 0.0 \n+ noic = 0.0 \n+ em = 4.1000000E+07 \n+ af = 1 \n+ ef = 0.84 \n+ kf = 0 \n+ ntnoi = 1 \n \n+ dmcg = 0 \n+ dmcgt = 0 \n+ dmdg = 0 \n+ xgw = 0 \n+ xgl = 0 \n+ ngcon = 1 \n \n+ diomod = 1 \n+ njs = 1.2928 \n+ jss = 0.0027500000000000003 \n+ jsws = 6e-10 \n+ xtis = 2 \n+ bvs = 11.7 \n+ xjbvs = 1 \n+ ijthsrev = 0.1 \n+ ijthsfwd = 0.1 \n+ tpb = 0.0012287 \n+ tpbsw = 0 \n+ tpbswg = 0 \n+ tcj = 0.000792 \n+ tcjsw = 1e-005 \n+ tcjswg = 0 \n+ cgdo = 2.54e-010 \n+ cgso = 2.54e-010 \n+ cgbo = 1e-013 \n+ capmod = 2 \n+ xpart = 0 \n+ cgsl = 0 \n+ cgdl = 0 \n+ cf = 1.4067e-012 \n+ clc = 1e-007 \n+ cle = 0.6 \n+ dlc = 1.0494e-008+0.0+0.0 \n+ dwc = 0+0.0 \n+ vfbcv = -1 \n+ acde = 0.4 \n+ moin = 6.9 \n+ noff = 3.4037 \n+ voffcv = -0.17287 \n+ ngate = 1e+023 \n+ lwc = 0 \n+ llc = 0 \n+ lwlc = 0 \n+ wlc = 0 \n+ wwc = 0 \n+ wwlc = 0 \n+ ckappas = 0.6 \n+ cjs = 0.0013459 \n+ mjs = 0.44 \n+ pbs = 0.729 \n+ cjsws = 3.6001e-011 \n+ mjsws = 0.0009 \n+ pbsws = 0.2 \n+ cjswgs = 2.3347e-010 \n+ mjswgs = 0.8000 \n+ pbswgs = 0.95578 \n \n+ saref = 1.04e-06\n+ sbref = 1.04e-06\n+ wlod = 0\n+ kvth0 = 9.8e-9\n+ lkvth0 = 0\n+ wkvth0 = 0.2e-6\n+ pkvth0 = 0\n+ llodvth = 0\n+ wlodvth = 1\n+ stk2 = 0\n+ lodk2 = 1\n+ lodeta0 = 1\n+ ku0 = -2.7e-08\n+ lku0 = 0\n+ wku0 = 0\n+ pku0 = 0\n+ llodku0 = 0\n+ wlodku0 = 1\n+ kvsat = 0.2\n+ steta0 = 0\n+ tku0 = 0\n+)
TEXT 1384 88 Left 2 !.model cmosp PMOS (\n \n+ lmin = 1.45e-07 lmax = 1.55e-07 wmin = 1.255e-06 wmax = 1.265e-06\n+ level = 54 \n+ tnom = 30 \n+ version = 4.5 \n+ toxm = 4.23e-009 \n+ xj = 1.5e-007 \n+ lln = 1 \n+ lwn = 1 \n+ wln = 1 \n+ wwn = 1 \n+ lint = -1.3994e-008+0.0 \n+ ll = 0 \n+ lw = 0 \n+ lwl = 0 \n+ wint = 7.3039e-009+0.0 \n+ wl = 0 \n+ ww = 0 \n+ wwl = 0 \n+ xl = 0 \n+ xw = 0 \n+ mobmod = 0 \n+ binunit = 2 \n+ dwg = -5.722e-009 \n+ dwb = -1.7864e-008 \n+ igcmod = 0 \n+ igbmod = 0 \n+ rgatemod = 0 \n+ rbodymod = 1 \n+ trnqsmod = 0 \n+ acnqsmod = 0 \n+ fnoimod = 1 \n+ tnoimod = 1 \n+ permod = 1 \n+ geomod = 0 \n+ rdsmod = 0 \n+ tempmod = 0 \n \n+ lintnoi = -2.0e-07 \n+ vfbsdoff = 0 \n+ lambda = 0 \n+ vtl = 0 \n+ lc = 5e-009 \n+ xn = 3 \n+ rnoia = 0.69 \n+ rnoib = 0.34 \n+ tnoia = 25e6 \n+ tnoib = 0.0e-6 \n+ epsrox = 3.9 \n+ toxe = 4.23e-009 \n+ dtox = 0 \n+ ndep = 1.7e+017 \n+ nsd = 1e+020 \n+ rshg = 0.1 \n \n+ rsh = 1 \n \n+ vth0 = -1.0652+0.0 \n+ k1 = 1.3152469 \n+ k2 = -0.27798063+0.0 \n+ k3 = -15.845 \n+ dvt0 = 4.4955 \n+ dvt1 = 0.294 \n+ dvt2 = 0.015 \n+ dvt0w = -4.9772 \n+ dvt1w = 1147200 \n+ dvt2w = -0.00896 \n+ w0 = 0 \n+ k3b = 2 \n \n+ phin = 0 \n+ lpe0 = 0 \n+ lpeb = 0 \n+ vbm = -3 \n+ dvtp0 = 0 \n+ dvtp1 = 0 \n \n+ vsat = 68611+0.0 \n+ ua = -2.4423e-009+0.0 \n+ ub = 2.0699352e-018+0.0 \n+ uc = 1.6133739e-013 \n+ rdsw = 547.88+0.0 \n+ prwb = -0.32348 \n+ prwg = 0.1376 \n+ wr = 1 \n+ u0 = 0.0025134+0.0 \n+ a0 = 0.91285081+0.0 \n+ keta = -0.020464881+0.0 \n+ a1 = 0 \n+ a2 = 0.87366558 \n+ ags = 1.25+0.0 \n+ b0 = 0+0.0 \n+ b1 = 0+0.0 \n \n+ eu = 1.67 \n+ rdswmin = 0 \n+ rdw = 0 \n+ rdwmin = 0 \n+ rsw = 0 \n+ rswmin = 0 \n+ voff = -0.25076476+0.0 \n+ nfactor = 1.9+0.0 \n+ up = 0.0\n+ ud = 0.0\n+ lp = 1.0\n+ tvfbsdoff = 0.0\n+ tvoff = 0+0.0\n+ cit = 1e-005 \n+ cdsc = 0.00013 \n+ cdscb = 0.00078 \n+ cdscd = 0 \n+ eta0 = 0.21064695+0.0 \n+ etab = -0.014728557 \n+ dsub = 0.26 \n+ voffl = 0 \n+ minv = 0 \n+ pclm = 0.61630162+0.0 \n+ pdiblc1 = 0.14215108 \n+ pdiblc2 = 0.0026509038 \n+ pdiblcb = -0.15188768 \n+ drout = 1 \n+ pscbe1 = 8e+008 \n+ pscbe2 = 9.1788025e-009 \n+ pvag = 0 \n+ delta = 0.01 \n+ alpha0 = 1e-010 \n+ alpha1 = 1e-010 \n+ beta0 = 7.9381315 \n+ fprout = 0 \n+ pdits = 0+0.0 \n+ pditsl = 0 \n+ pditsd = 0+0.0 \n \n+ agidl = 4.0078966e-010+0.0 \n+ bgidl = 1e009+0.0 \n+ cgidl = 300+0.0 \n+ egidl = 0.1 \n+ aigbacc = 0.43 \n+ bigbacc = 0.054 \n+ cigbacc = 0.075 \n+ nigbacc = 1 \n+ aigbinv = 0.35 \n+ bigbinv = 0.03 \n+ cigbinv = 0.006 \n+ eigbinv = 1.1 \n+ nigbinv = 3 \n+ aigc = 0.43 \n+ bigc = 0.054 \n+ cigc = 0.075 \n+ nigc = 1 \n+ aigsd = 0.43 \n+ bigsd = 0.054 \n+ cigsd = 0.075 \n+ dlcig = 0 \n+ poxedge = 1 \n+ pigcd = 1 \n+ ntox = 1 \n+ toxref = 4.23e-009 \n \n+ kt1 = -0.70976+0.0 \n+ kt2 = -0.12 \n+ at = 50942 \n+ ute = -0.21243 \n+ ua1 = 1.8303e-010 \n+ ub1 = 3.6891e-019 \n+ uc1 = 6.4484e-012 \n+ kt1l = 0 \n+ prt = 0 \n \n+ xrcrg1 = 12 \n+ xrcrg2 = 1 \n+ rbpb = 50 \n+ rbpd = 50 \n+ rbps = 50 \n+ rbdb = 50 \n+ rbsb = 50 \n+ gbmin = 1e-012 \n \n+ noia = 1.5e+42 \n+ noib = 0.0 \n+ noic = 0.0 \n+ em = 4.1000000E+07 \n+ af = 1 \n+ ef = 1.0 \n+ kf = 0 \n+ ntnoi = 1 \n+ dmcg = 0 \n+ dmcgt = 0 \n+ dmdg = 0 \n+ xgw = 0 \n+ xgl = 0 \n+ ngcon = 1 \n \n+ diomod = 1 \n+ njs = 1.3632 \n+ jss = 2.1483e-05 \n+ jsws = 8.040000000000001e-10 \n+ xtis = 5.2 \n+ bvs = 12.69 \n+ xjbvs = 1 \n+ ijthsrev = 0.1 \n+ ijthsfwd = 0.1 \n \n+ tpb = 0.0020386 \n+ tpbsw = 0.001246 \n+ tpbswg = 0 \n+ tcj = 0.0012407 \n+ tcjsw = 0.00037357 \n+ tcjswg = 2e-012 \n+ cgdo = 5.5e-11 \n+ cgso = 5.5e-11 \n+ cgbo = 0 \n+ capmod = 2 \n+ xpart = 0 \n+ cgsl = 1.0005e-011 \n+ cgdl = 1.0005e-011 \n+ cf = 1.2e-011 \n+ clc = 1e-007 \n+ cle = 0.6 \n+ dlc = -3e-09+0.0+0.0 \n+ dwc = 0+0.0 \n+ vfbcv = -0.14469 \n+ acde = 0.8 \n+ moin = 18.13 \n+ noff = 3.9 \n+ voffcv = -0.10701 \n+ ngate = 1e+023 \n+ lwc = 0 \n+ llc = 0 \n+ lwlc = 0 \n+ wlc = 0 \n+ wwc = 0 \n+ wwlc = 0 \n \n+ ckappas = 0.6 \n+ cjs = 0.00074079 \n+ mjs = 0.34629 \n+ pbs = 0.6587 \n+ cjsws = 9.88e-011 \n+ mjsws = 0.29781 \n+ pbsws = 0.7418 \n+ cjswgs = 2.3894e-010 \n+ mjswgs = 0.9274 \n+ pbswgs = 1.4338 \n \n+ saref = 1.04e-06\n+ sbref = 1.04e-06\n+ wlod = 0+0.0\n+ kvth0 = 0+0.0\n+ lkvth0 = 0+0.0\n+ wkvth0 = 0+0.0\n+ pkvth0 = 0\n+ llodvth = 0\n+ wlodvth = 1\n+ stk2 = 0\n+ lodk2 = 1\n+ lodeta0 = 1\n+ ku0 = 0+0.0\n+ lku0 = 0+0.0\n+ wku0 = 0+0.0\n+ pku0 = 0\n+ llodku0 = 0\n+ wlodku0 = 1\n+ kvsat = 0+0.0\n+ steta0 = 0\n+ tku0 = 0\n+)
TEXT -3824 7696 Left 2 !.tran 100
TEXT -3080 704 Left 6 ;xor3_1x
